Circuit: * C:\Users\e2202683\Downloads\Inverting_and_LIB\Inverterting.asc


Date: Thu Sep 04 14:24:12 2025
Total elapsed time: 0.031 seconds.

tnom = 27
temp = 27
method = trap
totiter = 237
traniter = 0
tranpoints = 0
accept = 0
rejected = 0
matrix size = 38
fillins = 32
solver = Normal
Matrix Compiler1: 3.38 KB object code size  0.7/0.2/[0.1]
Matrix Compiler2: 3.55 KB object code size  0.2/0.2/[0.1]

